7

C          0.13290       -0.45320       -0.00060
C         -1.24070        0.16670        0.00010
O          1.11350        0.25160        0.00020
H          0.24030       -1.52790        0.00270
H         -1.99460       -0.62050       -0.00070
H         -1.36040        0.78350        0.89080
H         -1.36050        0.78550       -0.88920
