C5H8O4
APtclcactv01182314453D 0   0.00000     0.00000
 
 17 16  0  0  0  0  0  0  0  0999 V2000
   -1.4961    0.3595   -0.7528 C   0  0  0  0  0  0  0  0  0  0  0  0
   -2.4949   -0.3407   -0.2560 C   0  0  0  0  0  0  0  0  0  0  0  0
   -2.4194   -0.8273    1.0081 O   0  0  0  0  0  0  0  0  0  0  0  0
   -3.1995   -1.3277    1.2842 H   0  0  0  0  0  0  0  0  0  0  0  0
   -0.2695    0.6201    0.0829 C   0  0  0  0  0  0  0  0  0  0  0  0
    0.9576    0.0294   -0.6144 C   0  0  0  0  0  0  0  0  0  0  0  0
    2.1843    0.2900    0.2213 C   0  0  0  0  0  0  0  0  0  0  0  0
    2.8402   -0.6353    0.6360 O   0  0  0  0  0  0  0  0  0  0  0  0
    0.7817   -1.3795   -0.7758 O   0  0  0  0  0  0  0  0  0  0  0  0
    0.6675   -1.8594    0.0559 H   0  0  0  0  0  0  0  0  0  0  0  0
   -0.0935    2.0290    0.2443 O   0  0  0  0  0  0  0  0  0  0  0  0
    0.0206    2.5089   -0.5874 H   0  0  0  0  0  0  0  0  0  0  0  0
   -1.5543    0.7431   -1.7607 H   0  0  0  0  0  0  0  0  0  0  0  0
   -3.3740   -0.5274   -0.8549 H   0  0  0  0  0  0  0  0  0  0  0  0
   -0.3907    0.1546    1.0611 H   0  0  0  0  0  0  0  0  0  0  0  0
    1.0788    0.4948   -1.5926 H   0  0  0  0  0  0  0  0  0  0  0  0
    2.4768    1.3043    0.4494 H   0  0  0  0  0  0  0  0  0  0  0  0
  1  2  2  0  0  0  0
  2  3  1  0  0  0  0
  3  4  1  0  0  0  0
  1  5  1  0  0  0  0
  5  6  1  0  0  0  0
  6  7  1  0  0  0  0
  7  8  2  0  0  0  0
  6  9  1  0  0  0  0
  9 10  1  0  0  0  0
  5 11  1  0  0  0  0
 11 12  1  0  0  0  0
  1 13  1  0  0  0  0
  2 14  1  0  0  0  0
  5 15  1  0  0  0  0
  6 16  1  0  0  0  0
  7 17  1  0  0  0  0
M  END
$$$$
