17
C5H8O4
C         -1.33070       -0.65030       -0.24750
C         -2.56610       -0.28920        0.53640
O         -3.58300        0.00880       -0.04270
C         -0.16770        0.24030        0.19460
C          1.11430       -0.20810       -0.50980
C          2.25980        0.66910       -0.07430
O          3.21900        0.18160        0.47390
O          1.39680       -1.56600       -0.16600
H          1.52500       -1.71350        0.78110
O         -0.45020        1.59820       -0.14920
H         -0.57850        1.74570       -1.09620
H         -1.07770       -1.69490       -0.06620
H         -1.51860       -0.50120       -1.31080
H         -2.54190       -0.29700        1.61610
H         -0.03720        0.15830        1.27370
H          0.98380       -0.12610       -1.58880
H          2.22280        1.73360       -0.25250
