17
C5H8O4
C         -1.49610        0.35950       -0.75280
C         -2.49490       -0.34070       -0.25600
O         -2.41940       -0.82730        1.00810
H         -3.19950       -1.32770        1.28420
C         -0.26950        0.62010        0.08290
C          0.95760        0.02940       -0.61440
C          2.18430        0.29000        0.22130
O          2.84020       -0.63530        0.63600
O          0.78170       -1.37950       -0.77580
H          0.66750       -1.85940        0.05590
O         -0.09350        2.02900        0.24430
H          0.02060        2.50890       -0.58740
H         -1.55430        0.74310       -1.76070
H         -3.37400       -0.52740       -0.85490
H         -0.39070        0.15460        1.06110
H          1.07880        0.49480       -1.59260
H          2.47680        1.30430        0.44940
